/*--------------------------------*- C++ -*----------------------------------*\
| =========                 |                                                 |
| \\      /  F ield         | OpenFOAM: The Open Source CFD Toolbox           |
|  \\    /   O peration     | Version:  1.5                                   |
|   \\  /    A nd           | Web:      http://www.OpenFOAM.org               |
|    \\/     M anipulation  |                                                 |
\*---------------------------------------------------------------------------*/
FoamFile
{
    version     2.0;
    format      ascii;
    class       dictionary;
    object      observationsDict;
}
// * * * * * * * * * * * * * * * * * * * * * * * * * * * * * * * * * * * * * //

observationDeltaTimesteps 2;
observationStartTimestep  1;

positions
(
    (0.182 2E-02 0.11)
    (0.182 2E-02 0.33)
    (0.182 2E-02 0.55)
    (0.182 2E-02 0.77)
    (0.182 2E-02 0.99)

    (0.546 2E-02 0.11)
    (0.546 2E-02 0.33)
    (0.546 2E-02 0.55)
    (0.546 2E-02 0.77)
    (0.546 2E-02 0.99)

    (0.91  2E-02 0.11)
    (0.91  2E-02 0.33)
    (0.91  2E-02 0.55)
    (0.91  2E-02 0.77)
    (0.91  2E-02 0.99)

    (1.274 2E-02 0.11)
    (1.274 2E-02 0.33)
    (1.274 2E-02 0.55)
    (1.274 2E-02 0.77)
    (1.274 2E-02 0.99)

    (1.638 2E-02 0.11)
    (1.638 2E-02 0.33)
    (1.638 2E-02 0.55)
    (1.638 2E-02 0.77)
    (1.638 2E-02 0.99)
);




// ************************************************************************* //
