/*--------------------------------*- C++ -*----------------------------------*\
| =========                 |                                                 |
| \\      /  F ield         | OpenFOAM: The Open Source CFD Toolbox           |
|  \\    /   O peration     | Version:  v1906                                 |
|   \\  /    A nd           | Web:      www.OpenFOAM.com                      |
|    \\/     M anipulation  |                                                 |
\*---------------------------------------------------------------------------*/
FoamFile
{
    version     2.0;
    format      ascii;
    class       polyBoundaryMesh;
    location    "constant/polyMesh";
    object      boundary;
}
// * * * * * * * * * * * * * * * * * * * * * * * * * * * * * * * * * * * * * //

7
(
    inlet
    {
        type            wall;
        inGroups        1(wall);
        nFaces          3;
        startFace       137;
    }
    outlet
    {
        type            wall;
        inGroups        1(wall);
        nFaces          3;
        startFace       140;
    }
    top
    {
        type            wall;
        inGroups        1(wall);
        nFaces          19;
        startFace       143;
    }
    bottomwall
    {
        type            wall;
        inGroups        1(wall);
        nFaces          6;
        startFace       162;
    }
    bottomsym
    {
        type            wall;
        inGroups        1(wall);
        nFaces          8;
        startFace       168;
    }
    cavitywall
    {
        type            wall;
        inGroups        1(wall);
        nFaces          15;
        startFace       176;
    }
    frontAndBack
    {
        type            empty;
        inGroups        1(empty);
        nFaces          164;
        startFace       191;
    }
)

// ************************************************************************* //
