/*--------------------------------*- C++ -*----------------------------------*\
| =========                 |                                                 |
| \\      /  F ield         | OpenFOAM: The Open Source CFD Toolbox           |
|  \\    /   O peration     | Version:  v2006                                 |
|   \\  /    A nd           | Website:  www.openfoam.com                      |
|    \\/     M anipulation  |                                                 |
\*---------------------------------------------------------------------------*/
FoamFile
{
    version     2.0;
    format      ascii;
    class       dictionary;
    object      blockMeshDict;
}
// * * * * * * * * * * * * * * * * * * * * * * * * * * * * * * * * * * * * * //

scale 1;

vertices
(
(0 0 0)
(1 0 0)
(1 1 0)
(0 1 0)
(0 0 0.5)
(1 0 0.5)
(1 1 0.5)
(0 1 0.5)
);

blocks
(
hex (0 1 2 3 4 5 6 7) (150 150 1) simpleGrading (1 1 1)
);

edges
(
);

boundary
(
    left
    {
        type patch;
        faces ((0 4 7 3));
    }

    right
    {
        type patch;
        faces ((1 5 6 2));
    }

    top
    {
        type patch;
        faces ((0 1 5 4));
    }

    bottom
    {
        type patch;
        faces ((3 2 6 7));
    }

    frontAndBack
    {
        type empty;
        faces ((4 5 6 7)(0 1 2 3));
    }

);

mergePatchPairs
(
);


// ************************************************************************* //
