/*--------------------------------*- C++ -*----------------------------------*\
| =========                 |                                                 |
| \\      /  F ield         | OpenFOAM: The Open Source CFD Toolbox           |
|  \\    /   O peration     | Version:  2212                                  |
|   \\  /    A nd           | Website:  www.openfoam.com                      |
|    \\/     M anipulation  |                                                 |
\*---------------------------------------------------------------------------*/
FoamFile
{
    version     2.0;
    format      ascii;
    arch        "LSB;label=32;scalar=64";
    class       polyBoundaryMesh;
    location    "constant/polyMesh";
    object      boundary;
}
// * * * * * * * * * * * * * * * * * * * * * * * * * * * * * * * * * * * * * //

3
(
    hotSide
    {
        type            patch;
        nFaces          400;
        startFace       8880;
    }
    coldSide
    {
        type            patch;
        nFaces          400;
        startFace       9280;
    }
    adiabaticPlanes
    {
        type            patch;
        nFaces          640;
        startFace       9680;
    }
)

// ************************************************************************* //
