/*--------------------------------*- C++ -*----------------------------------*\
| =========                 |                                                 |
| \\      /  F ield         | OpenFOAM: The Open Source CFD Toolbox           |
|  \\    /   O peration     | Version:  2.2.2                                 |
|   \\  /    A nd           | Web:      www.OpenFOAM.org                      |
|    \\/     M anipulation  |                                                 |
\*---------------------------------------------------------------------------*/
FoamFile
{
    version     2.0;
    format      ascii;
    class       dictionary;
    location    "system";
    object      ITHACAdict;
}

thermalConductivity 383.0;
density             8940.0;
specificHeat        390.0;
heatTranferCoeff    5.66e4;
Tf                  350.0;
initialField        400.0;

maxFrequency        0.0;
a                   150;
b                   200;
c                   300;

NheatFluxPODbasis   10;
EnKF_innerLoop      2;
