/*--------------------------------*- C++ -*----------------------------------*\
| =========                 |                                                 |
| \\      /  F ield         | OpenFOAM: The Open Source CFD Toolbox           |
|  \\    /   O peration     | Version:  v2106                                 |
|   \\  /    A nd           | Website:  www.openfoam.com                      |
|    \\/     M anipulation  |                                                 |
\*---------------------------------------------------------------------------*/
FoamFile
{
    version     2.0;
    format      ascii;
    arch        "LSB;label=32;scalar=64";
    class       polyBoundaryMesh;
    location    "constant/polyMesh";
    object      boundary;
}
// * * * * * * * * * * * * * * * * * * * * * * * * * * * * * * * * * * * * * //

5
(
    left
    {
        type            patch;
        nFaces          40;
        startFace       3120;
    }
    bottom
    {
        type            patch;
        nFaces          40;
        startFace       3160;
    }
    right
    {
        type            patch;
        nFaces          40;
        startFace       3200;
    }
    top
    {
        type            patch;
        nFaces          40;
        startFace       3240;
    }
    frontAndBack
    {
        type            empty;
        inGroups        1(empty);
        nFaces          3200;
        startFace       3280;
    }
)

// ************************************************************************* //
